78
Lattice="24.503653 0.0 0.0  0.0 35.000000 0.0  0.0 0.0 35.000000"
H 3.2351333544101264 -3.321389308393583 -0.476031783905636
C 4.1147298147637725 -2.6803041267809586 -0.5286766283681391
H 4.01661056850822 -2.0274046791985993 -1.3932258462227316
H 24.44410774480441 -0.417005772326961 -1.3960020754121316
H 4.988476547453516 -3.3149648475139806 -0.6722348826518493
C 13.567879789319278 -1.3677764206671197 -0.19898586618632166
C 12.957418131936679 -0.14462369377820747 -0.07980420274089277
H 13.024162232722151 -2.299667660615257 -0.1891968970954148
C 14.969344668534726 -1.250767252763993 -0.33425871345883235
H 15.125301533642688 -3.6695658356601335 -1.7430618150366493
C 16.13090517077112 -2.207427806816587 -0.5002400368651337
H 15.914547888132086 -2.378278726003326 -2.655969981304091
C 16.005001896255717 -3.0282349307413385 -1.7885295619079864
H 16.880668159068943 -3.6627282963144845 -1.9211853678431403
C 17.29855899681858 -1.2263701086552596 -0.5773789929412156
C 18.641145434178444 -1.5105489640561027 -0.7383582351122859
H 18.995604097435375 -2.528513737324844 -0.8277846280539543
C 19.52815588274398 -0.4417639454938525 -0.785917882360305
S 22.263508685183723 -1.4896795358422144 -1.1751891015104037
C 23.39960801030185 -0.1973443253769929 -1.2634960286084722
C 20.978554970011285 -0.3824820087753592 -0.9523638344975892
H 7.358849966704117 3.7828262572058873 -0.6049911863264971
H 8.140197952294606 2.5787976574730993 -1.6359669672683315
C 8.237474883464005 3.14793476407587 -0.714185438226727
H 9.113128393611523 3.7913074073046444 -0.7951361159142539
S 14.116208377226156 1.1553882512401352 -0.13392532412742636
C 15.404506637814144 0.043826779472974746 -0.31627028461320095
C 16.855030646580232 0.10335730420766288 -0.46547488511802315
H 19.22209653232538 3.444352919783027 -1.8371806937403667
C 17.74270372256522 1.1723359273256495 -0.5106223995149376
H 17.388532163386174 2.1905041135449763 -0.42432525277516564
C 19.085154636532774 0.8875047028007756 -0.6727070255072038
C 20.09921349923108 2.810168066990578 -1.9608776604829672
H 19.99059093747994 2.2457683775223227 -2.8842922684538475
C 20.251762660381324 1.869074791278273 -0.7602448368272404
H 20.973441406986286 3.4545113909825274 -2.04914864665595
C 22.815574677462628 1.0278872458083386 -1.123485414768672
H 23.371824764045094 1.951602731483813 -1.1494228777937767
C 21.41290950361044 0.9134629796393978 -0.9449407088190953
C 1.690466967056612 -1.0215988530774474 1.1242377060709585
H 1.134424196068611 -1.9453926631825424 1.151697848745748
H 3.5334830922582743 -3.4465121601345436 2.0524808723084496
C 3.0930246247853797 -0.9071319003782887 0.9448651226605478
C 4.2542785324942605 -1.8627689682147028 0.760993149499455
H 4.516449345092795 -2.2363668453821717 2.8854580139521744
C 4.40753982007109 -2.8021167229709003 1.9629036463003822
H 7.117417560988557 -2.1841081289559687 0.4242781396687738
H 5.284735667148377 -3.4362948182995514 1.8397363507650086
C 6.763089648113216 -1.1658892542164638 0.5093254402889412
C 7.650540873779525 -0.09680700759238851 0.4623480383973073
C 5.420653813804914 -0.8810913783032627 0.6715811911640144
C 9.100998580001258 -0.037217647384363846 0.3125311855601872
S 10.389427812470977 -1.148802393549309 0.13128537835265505
H 15.391300407336226 -3.7863223671983235 0.7860061502997274
C 16.267108405419307 -3.143006316626107 0.7062853352100971
H 16.36419647475056 -2.5752419860091966 1.6289320627949913
H 17.14564087208147 -3.777912801176468 0.5964433293059603
C 1.1062556981533636 0.20369992436328538 1.2628789503842683
C 3.527127138211688 0.38890761316368 0.9503165041156748
S 2.2420518676661607 1.4961479340482304 1.1722689386652907
C 4.97744435124571 0.44824566322679676 0.7831604101705872
H 7.624683732485466 3.6714098874071928 1.9127094923486265
C 7.206809764365292 1.232989238883358 0.5726158705956919
C 5.864234981310811 1.5171337732231007 0.7337691853055482
H 5.509620899141035 2.5351497544670036 0.8219702226904162
C 8.374256687014716 2.2141554070629756 0.4936725393625566
C 8.50042385529249 3.0368810921958045 1.7807058402019897
H 8.59128017956613 2.388222075537798 2.6490752242191267
H 9.379988740745834 3.6783090171104784 1.7340066000425272
C 9.535944043858635 1.257473185383702 0.3286882576816913
C 11.547978263094521 0.15133195643330677 0.07505867153997021
H 11.480911964812902 2.3065045993089273 0.18163066611510806
C 10.93735345326688 1.374536444789686 0.1928644724894374
H 19.517232493514385 3.3193753997670354 0.6747310397514303
H 0.061778745422209624 0.4233365433782863 1.3955887134785094
C 20.3909164760479 2.6847483781664803 0.530645851183884
H 20.488533256626155 2.030597935457704 1.3943054283138039
H 21.270662638588124 3.325732457327054 0.47928705329281185
